
**** 12/15/25 20:43:43 ***** PSpice 16.6.0 (October 2012) ***** ID# 0 ********

 ** Profile: "SCHEMATIC1-simulation_lab12"  [ D:\PSPICE\Lab12\Lab12-PSpiceFiles\SCHEMATIC1\simulation_lab12.sim ] 


 ****     CIRCUIT DESCRIPTION


******************************************************************************




** Creating circuit file "simulation_lab12.cir" 
** WARNING: THIS AUTOMATICALLY GENERATED FILE MAY BE OVERWRITTEN BY SUBSEQUENT SIMULATIONS

*Libraries: 
* Profile Libraries :
* Local Libraries :
* From [PSPICE NETLIST] section of D:\Cadence\SPB_Data\\cdssetup\OrCAD_PSpice/16.6.0/PSpice.ini file:
.lib "nom.lib" 

*Analysis directives: 
.AC DEC 1000 100 100000
.OPTIONS ADVCONV
.PROBE64 V(alias(*)) I(alias(*)) W(alias(*)) D(alias(*)) NOISE(alias(*)) 
.INC "..\SCHEMATIC1.net" 



**** INCLUDING SCHEMATIC1.net ****
* source LAB12
R_R1         N00880 N00217  33k TC=0,0 
C_C1         0 N00217  1n  TC=0,0 
C_C2         0 N00224  1n  TC=0,0 
C_C3         0 N00233  1n  TC=0,0 
R_R2         N00905 N00224  6.6k TC=0,0 
R_R3         N00909 N00233  165k TC=0,0 
V_V1         N00880 0  AC 1V
+SIN 0 0 0 0 0 0
V_V2         N00905 0  AC 1V
+SIN 0 0 0 0 0 0
V_V3         N00909 0  AC 1V
+SIN 0 0 0 0 0 0

**** RESUMING simulation_lab12.cir ****
.END

**** 12/15/25 20:43:43 ***** PSpice 16.6.0 (October 2012) ***** ID# 0 ********

 ** Profile: "SCHEMATIC1-simulation_lab12"  [ D:\PSPICE\Lab12\Lab12-PSpiceFiles\SCHEMATIC1\simulation_lab12.sim ] 


 ****     SMALL SIGNAL BIAS SOLUTION       TEMPERATURE =   27.000 DEG C


******************************************************************************



 NODE   VOLTAGE     NODE   VOLTAGE     NODE   VOLTAGE     NODE   VOLTAGE


(N00217)    0.0000 (N00224)    0.0000 (N00233)    0.0000 (N00880)    0.0000     

(N00905)    0.0000 (N00909)    0.0000 




    VOLTAGE SOURCE CURRENTS
    NAME         CURRENT

    V_V1         0.000E+00
    V_V2         0.000E+00
    V_V3         0.000E+00

    TOTAL POWER DISSIPATION   0.00E+00  WATTS



          JOB CONCLUDED

**** 12/15/25 20:43:43 ***** PSpice 16.6.0 (October 2012) ***** ID# 0 ********

 ** Profile: "SCHEMATIC1-simulation_lab12"  [ D:\PSPICE\Lab12\Lab12-PSpiceFiles\SCHEMATIC1\simulation_lab12.sim ] 


 ****     JOB STATISTICS SUMMARY


******************************************************************************



  Total job time (using Solver 1)   =         .02
